data/shbh_evnc_2/p13u/p13uhs19_1247/DSSfiles/p13uhs19_1247--p13udt8521/Master.dss
Clear

New Circuit.feeder_p13udt8521-p13uhs19_1247x bus1=p13udt8521-p13uhs19_1247x pu=1.03 basekV=12.47 R1=1e-05 X1=1e-05 R0=1e-05 X0=1e-05

Redirect LineCodes.dss
Redirect Lines.dss
Redirect Transformers.dss
Redirect LoadShapes.dss
Redirect Loads.dss
Redirect Storage.dss
Redirect PVSystems.dss

Set Voltagebases=[0.12, 0.208, 0.48, 7.2, 12.47]

Calcvoltagebases

Buscoords Buscoords.dss
set maxcontroliter=50

Solve mode=yearly stepsize=15m number=35040
